Version 4
SHEET 1 916 680
WIRE -288 32 -304 32
WIRE -176 32 -208 32
WIRE -160 32 -176 32
WIRE 32 32 -16 32
WIRE 288 32 32 32
WIRE -304 64 -304 32
WIRE 288 64 288 32
WIRE -176 80 -176 32
WIRE 32 80 32 32
WIRE 496 112 464 112
WIRE 608 112 496 112
WIRE 496 160 496 112
WIRE 608 160 608 112
WIRE -304 176 -304 144
WIRE -304 272 -304 256
WIRE -176 272 -176 144
WIRE -176 272 -304 272
WIRE 32 272 32 144
WIRE 288 272 288 144
WIRE 288 272 32 272
WIRE 496 272 496 224
WIRE 608 272 608 240
WIRE 608 272 496 272
WIRE -176 288 -176 272
WIRE 32 288 32 272
WIRE 496 288 496 272
FLAG -16 32 In
FLAG 32 288 0
FLAG 336 112 Out
FLAG -160 32 In
FLAG 464 112 Out
FLAG 496 288 0
FLAG -176 288 0
SYMBOL potentiometer 272 48 R0
WINDOW 3 36 88 Invisible 2
SYMATTR Value Rtot=500K wiper=1
SYMATTR InstName Vol
SYMBOL cap 16 80 R0
SYMATTR InstName C1
SYMATTR Value {X}
SYMBOL ind -288 160 R180
WINDOW 0 36 80 Left 2
WINDOW 3 36 40 Left 2
SYMATTR InstName L1
SYMATTR Value 4H
SYMBOL voltage -304 160 R0
WINDOW 3 24 96 Invisible 2
SYMATTR Value SINE(0 0.1V 1000)
SYMATTR Value2 AC 1
SYMATTR InstName V2
SYMBOL res -192 16 R90
WINDOW 0 0 56 VBottom 2
WINDOW 3 32 56 VTop 2
SYMATTR InstName R1
SYMATTR Value 7K
SYMBOL cap -192 80 R0
SYMATTR InstName C2
SYMATTR Value 100pF
SYMBOL cap 480 160 R0
SYMATTR InstName C3
SYMATTR Value 150pF
SYMBOL res 592 144 R0
SYMATTR InstName R2
SYMATTR Value 1Meg
TEXT -344 368 Left 2 !.ac oct 20 20 20000
TEXT -344 400 Left 2 !.inc potentiometer.sub
TEXT -344 432 Left 2 !.step param X LIST 470pf 1nf 2.2nf 4.7nf 10nf 22nf 47nf 100nf 200nf
TEXT 456 72 Left 2 ;Cable
TEXT -200 -16 Left 2 ;Pickup
TEXT 608 72 Left 2 ;Amp
