Version 4
SHEET 1 916 680
WIRE -400 32 -416 32
WIRE -288 32 -320 32
WIRE -272 32 -288 32
WIRE 32 32 -16 32
WIRE 272 32 32 32
WIRE -416 64 -416 32
WIRE 32 64 32 32
WIRE 272 64 272 32
WIRE -288 80 -288 32
WIRE 336 112 320 112
WIRE 480 112 448 112
WIRE 592 112 480 112
WIRE -528 160 -528 144
WIRE 480 160 480 112
WIRE 592 160 592 112
WIRE -416 176 -416 144
WIRE 32 192 32 144
WIRE 480 256 480 224
WIRE 592 256 592 240
WIRE 592 256 480 256
WIRE -416 272 -416 256
WIRE -288 272 -288 144
WIRE -288 272 -416 272
WIRE 32 272 32 256
WIRE 272 272 272 144
WIRE 272 272 32 272
WIRE 480 272 480 256
WIRE -288 288 -288 272
WIRE 32 288 32 272
FLAG -16 32 In
FLAG 32 288 0
FLAG 336 112 Out
FLAG -272 32 In
FLAG 448 112 Out
FLAG 480 272 0
FLAG -288 288 0
SYMBOL potentiometer 256 48 R0
WINDOW 3 36 88 Invisible 2
SYMATTR Value Rtot=500K wiper=1
SYMATTR InstName Vol
SYMBOL cap 16 192 R0
SYMATTR InstName C1
SYMATTR Value 0.1µF
SYMBOL ind -400 160 R180
WINDOW 0 36 80 Left 2
WINDOW 3 36 40 Left 2
SYMATTR InstName L1
SYMATTR Value 4H
SYMBOL voltage -416 160 R0
WINDOW 3 24 96 Invisible 2
SYMATTR Value SINE(0 0.1V 1000)
SYMATTR Value2 AC 1
SYMATTR InstName V2
SYMBOL res -304 16 R90
WINDOW 0 0 56 VBottom 2
WINDOW 3 32 56 VTop 2
SYMATTR InstName R1
SYMATTR Value 7K
SYMBOL cap -304 80 R0
SYMATTR InstName C2
SYMATTR Value 100pF
SYMBOL cap 464 160 R0
SYMATTR InstName C3
SYMATTR Value 150pF
SYMBOL res 16 48 R0
SYMATTR InstName R2
SYMATTR Value {W2}
SYMBOL res 576 144 R0
SYMATTR InstName R3
SYMATTR Value 1Meg
TEXT -344 368 Left 2 !.ac oct 10 20 20000
TEXT -344 400 Left 2 !.inc potentiometer.sub
TEXT 440 72 Left 2 ;Cable
TEXT -312 -16 Left 2 ;Pickup
TEXT -344 464 Left 2 !.step param W2 LIST 1 5K 15K 37K 84K 306K
